data/projects/1mg/circuit_control.dss
clear
set defaultbasefrequency=60
new object=circuit.lehigh basekv=115 pu=1.0001 phases=3 bus1=sourcebus angle=30 mvasc3=20000 mvasc1=21000
edit object=vsource.source basekv=115 bus1=sourcebus.1.2.3 pu=1.00 r1=0 x1=0.0001 r0=0 x0=0.0001
new object=vsource.secondsource basekv=4.16 bus1=680.1.2.3 pu=1.00 r1=0 x1=0.0001 r0=0 x0=0.0001
new object=transformer.sub phases=3 windings=2 xhl=0.008 buses=[sourcebus.1.2.3,650.1.2.3] conns=[delta,wye] kvs=[115,4.16] kvas=[5000,5000] %rs=[0.0005,0.0005]
new object=transformer.reg1 phases=1 bank=reg1 xhl=0.01 kvas=[1666,1666] buses=[650.1,rg60.1] kvs=[2.4,2.4] %loadloss=0.01
new object=regcontrol.reg1 transformer=reg1 winding=2 vreg=121 band=2 ptratio=20 ctprim=700 r=3 x=9
new object=transformer.reg2 phases=1 bank=reg1 xhl=0.01 kvas=[1666,1666] buses=[650.2,rg60.2] kvs=[2.4,2.4] %loadloss=0.01
new object=regcontrol.reg2 transformer=reg2 winding=2 vreg=121 band=2 ptratio=20 ctprim=700 r=3 x=9
new object=transformer.reg3 phases=1 bank=reg1 xhl=0.01 kvas=[1666,1666] buses=[650.3,rg60.3] kvs=[2.4,2.4] %loadloss=0.01
new object=regcontrol.reg3 transformer=reg3 winding=2 vreg=121 band=2 ptratio=20 ctprim=700 r=3 x=9
new object=transformer.xfm1 phases=3 windings=2 xhl=2 buses=[633.1.2.3,634.1.2.3] conns=[wye,wye] kvs=[4.16,0.480] kvas=[500,500] %rs=[0.55,0.55] xht=1 xlt=1
new object=linecode.mtx601 nphases=3 basefreq=60 rmatrix=[0.3465|0.1560,0.3375|0.1580,0.1535,0.3414] xmatrix=[1.0179|0.5017,1.0478|0.4236,0.3849,1.0348] units=mi
new object=linecode.mtx602 nphases=3 basefreq=60 rmatrix=[0.7526|0.1580,0.7475|0.1560,0.1535,0.7436] xmatrix=[1.1814|0.4236,1.1983|0.5017,0.3849,1.2112] units=mi
new object=linecode.mtx603 nphases=2 basefreq=60 rmatrix=[1.3238|0.2066,1.3294] xmatrix=[1.3569|0.4591,1.3471] units=mi
new object=linecode.mtx604 nphases=2 basefreq=60 rmatrix=[1.3238|0.2066,1.3294] xmatrix=[1.3569|0.4591,1.3471] units=mi
new object=linecode.mtx605 nphases=1 basefreq=60 rmatrix=[1.3292] xmatrix=[1.3475] units=mi
new object=linecode.mtx606 nphases=3 units=mi rmatrix=[0.791721|0.318476,0.781649|0.28345,0.318476,0.791721] xmatrix=[0.438352|0.0276838,0.396697|-0.0184204,0.0276838,0.438352] cmatrix=[383.948|0,383.948|0,0,383.948]
new object=linecode.mtx607 nphases=1 basefreq=60 rmatrix=[1.3425] xmatrix=[0.5124] cmatrix=[236] units=mi
new object=loadshape.solar_670_shape npts=8760 interval=1 useactual=yes mult=[0.0,0.0,0.0,0.0,0.0,0.0,0.0,0.0,34.39727097697059,104.2924806769607,147.21992668581052,452.39269449435005,103.7421468039362,242.43189845786745,362.6840614525378,390.4773259532147,195.1010795083513,12.933547972545671,0.0,0.0,0.0,0.0,0.0,0.0,0.0,0.0,0.0,0.0,0.0,0.0,0.0,0.0,90.25826495836608,229.2231835488096,320.85728318973685,12.658381036033438,688.7702183924777,246.28423556903877,894.3283434447644,615.0226715813163,324.7103222573788,27.79326450067698,0.0,0.0,0.0,0.0,0.0,0.0,0.0,0.0,0.0,0.0,0.0,0.0,0.0,0.0,264.7211222718292,617.2240070734142,820.0304627605788,347.5498799443649,618.0495078829509,616.3985062638775,503.5758505550375,437.25781102970655,229.4983504853218,18.16171976627811,0.0,0.0,0.0,0.0,0.0,0.0,0.0,0.0,0.0,0.0,0.0,0.0,0.0,0.0,402.8605400527358,922.947108754978,1310.3975984065582,1552.279162991401,1644.463596505353,1600.9858166234787,1408.3612395437376,1079.5234132386752,588.330776783159,115.57502703043296,0.0,0.0,0.0,0.0,0.0,0.0,0.0,0.0,0.0,0.0,0.0,0.0,0.0,0.0,438.0833118392432,977.4322680538124,1375.3391012928575,1616.3951650681638,1704.4527964909028,1644.1884295688408,1437.8048037070173,1096.0341313858798,593.8341155134036,112.82265570883992,0.0,0.0,0.0,0.0,0.0,0.0,0.0,0.0,0.0,0.0,0.0,0.0,0.0,0.0,346.1740452618037,819.7545938675958,1285.080836334491,1151.6199584307633,1301.8667214182085,1342.8687008279433,1348.0968726216756,1022.8369184477432,553.6583388696762,103.466979867424,0.0,0.0,0.0,0.0,0.0,0.0,0.0,0.0,0.0,0.0,0.0,0.0,0.0,0.0,351.40221705553614,348.92571462692604,1246.83193020282,1430.1001294846749,1280.6781653502958,1226.1930060514612,1033.5684289717203,528.3415767976093,279.0305049269359,29.719433056262613,0.0,0.0,0.0,0.0,0.0,0.0,0.0,0.0,0.0,0.0,0.0,0.0,0.0,0.0,357.73175855178823,834.0646784791733,220.14267464390588,290.037884343896,649.1447756217747,752.0614216161741,616.1233393273652,399.2833698780769,211.88696459206815,24.490559306059485,0.0,0.0,0.0,0.0,0.0,0.0,0.0,0.0,0.0,0.0,0.0,0.0,0.0,0.0,367.6377682662286,843.9706881936136,452.39269449435005,962.2973845891688,753.7124232352477,351.9525509285606,451.29202674830105,377.54447993713967,195.65141338137573,92.45960045046397,0.0,0.0,0.0,0.0,0.0,0.0,0.0,0.0,0.0,0.0,0.0,0.0,0.0,0.0,170.3353532657795,421.022259819014,678.3138748050128,1162.6273378477235,674.7367046303538,881.1203304921771,894.8793792742596,722.0668216233993,402.8605400527358,70.72071050952681,0.0,0.0,0.0,0.0,0.0,0.0,0.0,0.0,0.0,0.0,0.0,0.0,0.0,0.0,443.5866505694878,981.8349390380082,1374.2391355032794,1610.6166594014069,1697.572921121626,1644.463596505353,1452.3893532986365,1130.7065692993626,671.158832499224,165.3816464520886,0.0,0.0,0.0,0.0,0.0,0.0,0.0,0.0,0.0,0.0,0.0,0.0,0.0,0.0,409.73971346554174,930.6517829773207,1305.9949274223625,1583.6495976667372,1680.511869101397,1643.087761822792,1455.9665234732956,1102.362970925661,655.4743171180268,162.9051440234785,0.0,0.0,0.0,0.0,0.0,0.0,0.0,0.0,0.0,0.0,0.0,0.0,0.0,0.0,400.9343714971503,920.195439389856,1295.8130488149393,1195.3736072056206,1326.908316553763,1206.655451602622,1088.8790890800913,868.737116392656,515.4087307815342,124.65553593533669,0.0,0.0,0.0,0.0,0.0,0.0,0.0,0.0,0.0,0.0,0.0,0.0,0.0,0.0,167.03335002763274,395.7061997034178,717.1138167661791,914.141064830116,1047.3274777538024,961.19671684312,568.5180553978074,462.8490380818149,261.1439520971701,42.65227907233759,0.0,0.0,0.0,0.0,0.0,0.0,0.0,0.0,0.0,0.0,0.0,0.0,0.0,0.0,88.0569294662682,236.3782258545984,1097.9602999414656,1368.735094816564,1580.897928301615,1568.2395472655817,1400.9310303014363,1093.832795893782,637.5877642882609,161.25414240440512,0.0,0.0,0.0,0.0,0.0,0.0,0.0,0.0,0.0,0.0,0.0,0.0,0.0,0.0,364.6109319645941,847.2726914317604,1195.0984402691083,1010.7288712847342,1187.9433979633195,1546.775824261157,934.7799889814752,427.0759324222832,239.12989521972068,43.20261294536206,0.0,0.0,0.0,0.0,0.0,0.0,0.0,0.0,0.0,0.0,0.0,0.0,0.0,0.0,376.9941460641152,906.7115575442856,1323.6063133156165,1613.0931618300172,1674.458196498128,1631.5300485328075,1448.812183123977,1140.062245140779,667.5816623245651,173.91252344043855,0.0,0.0,0.0,0.0,0.0,0.0,0.0,0.0,0.0,0.0,0.0,0.0,0.0,0.0,411.66658397759807,927.349779739174,1341.7680330818944,1589.152936396982,1688.21724528021,1645.8394311879144,1477.1557814976788,1156.5729632879836,679.4145425510617,179.41586217068323,0.0,0.0,0.0,0.0,0.0,0.0,0.0,0.0,0.0,0.0,0.0,0.0,0.0,0.0,434.230974728072,973.5799309426412,1365.4330915784171,1598.784481131381,1751.5077465474358,1706.6541319830008,1516.7812242683815,1160.1501334626423,713.8118135280323,195.65141338137573,0.0,0.0,0.0,0.0,0.0,0.0,0.0,0.0,0.0,0.0,0.0,0.0,0.0,0.0,426.2504316127464,950.7396712991844,1329.384818982373,1556.681833975597,1641.7119271402307,1592.4549396351283,1419.6430839407392,1119.4240229458906,678.3138748050128,182.4426984723178,0.0,0.0,0.0,0.0,0.0,0.0,0.0,0.0,0.0,0.0,0.0,0.0,0.0,0.0,109.79581940720536,274.90300087925243,416.34442189830605,237.75406053715952,689.3212542219728,183.81923511134968,191.79907627020444,2.751669365122336,0.0,0.0,0.0,0.0,0.0,0.0,0.0,0.0,0.0,0.0,0.0,0.0,0.0,0.0,0.0,0.0,101.26564437532612,297.4673916297263,840.6686849554668,897.9055136194235,1695.0964186930162,1658.4978122239477,783.7070232280224,679.9648764240862,395.4310327669056,87.78176252975598,0.0,0.0,0.0,0.0,0.0,0.0,0.0,0.0,0.0,0.0,0.0,0.0,0.0,0.0,114.47435928438402,296.9170577567018,345.0733775157548,858.8304047217449,1812.0472804060105,1781.502346540211,1589.9784372065187,1255.0869382981873,757.2895934099066,214.6386339571905,0.0,0.0,0.0,0.0,0.0,0.0,0.0,0.0,0.0,0.0,0.0,0.0,0.0,0.0,454.0436961134234,999.721491867774,1393.226356079094,1629.054248060668,1727.292354177889,1685.464873958617,1509.626181962593,1196.7494418881818,749.5849191875642,219.59234077088144,0.0,0.0,0.0,0.0,0.0,0.0,0.0,0.0,0.0,0.0,0.0,0.0,0.0,0.0,432.57997310899856,955.418211176363,1329.109652045861,1557.782501721646,1651.618638811142,1606.4891553537236,1442.483343584196,1151.0696245577387,719.5903191947892,212.16213152858043,0.0,0.0,0.0,0.0,0.0,0.0,0.0,0.0,0.0,0.0,0.0,0.0,0.0,0.0,287.0103460857908,657.9508195466368,758.3902611559555,1125.7535644421428,1260.3151100919197,1207.756119348671,1099.611301560539,808.7479164071065,495.3201405031999,141.44142101905362,0.0,0.0,0.0,0.0,0.0,0.0,0.0,0.0,0.0,0.0,0.0,0.0,0.0,0.0,341.2210404045835,797.1909050735926,772.4244768745501,1434.7779674053827,1513.7543879667471,1098.235466877978,152.44880043601364,1067.6905330121783,630.7078889189843,177.4896936150976,0.0,0.0,0.0,0.0,0.0,0.0,0.0,0.0,0.0,0.0,0.0,0.0,0.0,0.0,96.58780645461816,155.47563673764822,234.45135534254203,362.40959647249616,286.184845276254,198.67824968301028,201.4306210046033,78.15021779535711,40.17577664372749,0.8255008095367006,0.0,0.0,0.0,0.0,0.0,0.0,0.0,0.0,0.0,0.0,0.0,0.0,0.0,0.0,454.594029986448,990.6409829628706,1379.1921403604997,1619.4227033262691,1717.3856425069778,1679.1360344188358,1519.2577266969918,1220.964834257729,751.5110877431497,238.0292274736717,0.0,0.0,0.0,0.0,0.0,0.0,0.0,0.0,0.0,0.0,0.0,0.0,0.0,0.0,431.7544722994618,954.5927103668264,1335.7143604786252,1564.6623770909223,1660.4239807795332,1626.301876739075,1464.4974004616452,940.0081607752072,625.4797171252519,236.3782258545984,0.0,0.0,0.0,0.0,0.0,0.0,0.0,0.0,0.0,0.0,0.0,0.0,0.0,0.0,134.83741454276,413.5927525331838,704.1802687936334,712.7111457819834,916.893436151709,865.9854470275336,781.7808546724369,562.4636808380676,345.0733775157548,99.06430888322824,0.0,0.0,0.0,0.0,0.0,0.0,0.0,0.0,0.0,0.0,0.0,0.0,0.0,0.0,454.31886304993566,998.6208241217251,1415.2404129565434,1657.9474783509231,1760.313790472298,1729.7688566064987,1553.6549976739625,1252.335268933065,779.8546861168512,260.3184512876333,0.0,0.0,0.0,0.0,0.0,0.0,0.0,0.0,0.0,0.0,0.0,0.0,0.0,0.0,455.9698646690092,972.20409626008,1348.6472064947002,1580.3475944285908,1674.73336343464,1648.8662674895488,1493.1154638153887,1208.5816201582077,779.5795191803388,265.2714561448536,0.0,0.0,0.0,0.0,0.0,0.0,0.0,0.0,0.0,0.0,0.0,0.0,0.0,0.0,452.6678614308623,392.6786614453125,921.0209401993926,1144.4656180814452,1305.9949274223625,1279.3023306677346,1102.087803989149,315.6291113960044,228.12251580276063,150.522631880428,0.0,0.0,0.0,0.0,0.0,0.0,0.0,0.0,0.0,0.0,0.0,0.0,0.0,0.0,0.0,349.7512154364628,943.034997076842,1322.5049436130969,1723.1648501302052,1721.789015447644,1577.5952231069975,1282.8795008423936,809.5734172166431,284.80901059369285,0.0,0.0,0.0,0.0,0.0,0.0,0.0,0.0,0.0,0.0,0.0,0.0,0.0,0.0,326.91165774947666,871.7639526942907,1304.0687588667768,1741.876903769508,1471.9269077474755,1654.6454751127762,1624.3757081834892,1261.690944774481,487.6154662808573,237.20372666413505,0.0,0.0,0.0,0.0,0.0,0.0,0.0,0.0,0.0,0.0,0.0,0.0,0.0,0.0,240.50572990228187,319.20628157066346,240.50572990228187,362.40959647249616,239.95539602925737,1001.9235293163424,912.4900632110426,662.3534905308326,230.0486843583463,31.64560161184825,0.0,0.0,0.0,0.0,0.0,0.0,0.0,0.0,0.0,0.0,0.0,0.0,0.0,0.0,17.886552829765876,115.57502703043296,180.7916968532444,646.9434401296768,778.7540183708021,362.6847634090084,525.3147404959747,228.94801661229732,138.9649185904435,261.6942859701945,0.0,0.0,0.0,0.0,0.0,0.0,0.0,0.0,0.0,0.0,0.0,0.0,0.0,0.0,113.92402541135957,108.4199847246442,420.4719259459896,823.6076329352377,755.363424854321,944.9611656324277,1032.7429281621835,1245.4553935637882,805.1707462324473,288.93721659784705,0.0,0.0,0.0,0.0,0.0,0.0,0.0,0.0,0.0,0.0,0.0,0.0,0.0,0.0,91.35893270441504,231.9748529139319,433.95580779155966,1616.1207000881222,606.4924965494371,603.1904933112903,684.6427143447943,515.1328618885514,12.658381036033438,268.5734593830004,0.0,0.0,0.0,0.0,0.0,0.0,0.0,0.0,0.0,0.0,0.0,0.0,0.0,0.0,146.11925893976158,649.419942558287,1403.6834016230296,1675.558864244177,1768.8439655041773,1760.313790472298,1599.6099819409176,1302.1425903111913,842.8700204475647,317.8304468881023,0.0,0.0,0.0,0.0,0.0,0.0,0.0,0.0,0.0,0.0,0.0,0.0,0.0,46.50531813997956,535.7717860399102,1069.341534631252,1465.04773433467,1697.022587248602,1794.1607275762444,1756.736620297639,1597.1327775558368,1305.4445935493382,871.7639526942907,334.06599809879475,0.0,0.0,0.0,0.0,0.0,0.0,0.0,0.0,0.0,0.0,0.0,0.0,0.0,47.33081894951626,516.5093985275832,1030.5415926700855,1402.3068649839977,1629.0535461041975,1726.1916864318396,1700.0494235502365,1598.784481131381,1266.919818524684,841.2190188284914,323.8848214478421,0.0,0.0,0.0,0.0,0.0,0.0,0.0,0.0,0.0,0.0,0.0,0.0,0.0,59.71333109256676,542.9261263892283,1069.6167015677645,1488.9879597677048,1669.2300247043952,1760.5889574088108,1479.0819500532646,1402.58203192051,1075.1207422544796,848.9243950073044,183.2681992818545,0.0,0.0,0.0,0.0,0.0,0.0,0.0,0.0,0.0,0.0,0.0,0.0,0.0,1.1006677460489342,301.5948956774098,690.4219219680218,975.781266434739,1110.8938479140113,1311.2230992160949,1387.7230173488497,922.947108754978,811.7747527087408,575.3972288106133,195.1010795083513,0.0,0.0,0.0,0.0,0.0,0.0,0.0,0.0,0.0,0.0,0.0,0.0,0.0,13.208714909057903,485.9644646617839,974.4054317521778,1365.4330915784171,1603.737485988601,1702.8010929153588,1676.6595319902258,1528.8892714313906,1235.82455078586,790.8613635773405,305.723101681564,0.0,0.0,0.0,0.0,0.0,0.0,0.0,0.0,0.0,0.0,0.0,0.0,0.0,0.0,72.37171212860021,102.6414790578873,325.5358230669155,455.4195307959845,485.6892977252717,588.0556098466468,374.51694167903446,324.985489193891,345.8988783252915,128.50787304650794,0.0,0.0,0.0,0.0,0.0,0.0,0.0,0.0,0.0,0.0,0.0,0.0,0.0,0.0,7.979841158854774,354.9793872301952,631.5333897285211,817.5539603319686,1236.3748846588846,1412.7639105279331,1105.3898072272962,1367.3592601340026,515.9590646545588,176.6641928055609,0.0,0.0,0.0,0.0,0.0,0.0,0.0,0.0,0.0,0.0,0.0,0.0,0.0,58.06232947349337,180.24136298021992,388.551157397629,684.9178812813064,947.988001934062,1833.5110034104357,1770.219800186739,1612.8179948935046,1325.5324818712018,894.3283434447644,360.7585948534228,0.0,0.0,0.0,0.0,0.0,0.0,0.0,0.0,0.0,0.0,0.0,0.0,0.0,74.29788068418584,551.181836441066,1066.039531393105,1435.053134341895,1660.4239807795332,1740.501069086947,1706.1037981099762,1560.2590041502558,1281.778833096345,865.9854470275336,351.1270501190239,0.0,0.0,0.0,0.0,0.0,0.0,0.0,0.0,0.0,0.0,0.0,0.0,0.0,67.69387420789224,209.6856290999703,877.2672914245353,1060.2603237698777,1639.785758584645,1725.9165194953275,1695.3715856295282,1547.8764920072051,1270.4969886993429,859.6559055312816,333.79083116228253,0.0,0.0,0.0,0.0,0.0,0.0,0.0,0.0,0.0,0.0,0.0,0.0,0.0,29.994599992774845,111.44682102627876,548.4294651194731,515.9590646545588,712.4359788454711,977.9826019268368,797.4660720101048,1017.3328777610276,501.3745150629397,156.3011375471849,0.2751669365122335,0.0,0.0,0.0,0.0,0.0,0.0,0.0,0.0,0.0,0.0,0.0,0.0,0.0,0.0,14.30938265510684,7.154340349318073,86.13076091068257,558.6113437268964,387.7256565880924,894.6035103812767,970.552392684536,642.540769145481,70.44554357301458,330.2136609876234,0.0,0.0,0.0,0.0,0.0,0.0,0.0,0.0,0.0,0.0,0.0,0.0,0.0,99.33947581974049,622.4528808236173,1178.3118532289209,1578.4214258730049,1827.732497743678,1918.816263511581,1814.7989497711328,1658.2226452874354,1365.4330915784171,937.256491410085,396.2565335764423,0.0,0.0,0.0,0.0,0.0,0.0,0.0,0.0,0.0,0.0,0.0,0.0,0.0,105.1179814864974,610.3448336606083,1122.1756923110129,1487.6121250851438,1709.405801348123,1798.0130646874156,1760.5889574088108,1606.213988417211,1326.3579826807386,907.8122252903346,382.22231785784766,0.0,0.0,0.0,0.0,0.0,0.0,0.0,0.0,0.0,0.0,0.0,0.0,0.0,69.8952096999901,552.5576711236272,866.8109478370703,1197.2997757612063,1452.3893532986365,1453.214854108173,1453.7651879811974,871.4887857577783,610.6200005971206,837.0915147808079,366.8122674566919,0.0,0.0,0.0,0.0,0.0,0.0,0.0,0.0,0.0,0.0,0.0,0.0,0.0,39.90060970721525,339.8445037655517,763.6191349061586,911.664562401506,1110.8938479140113,1084.2012511593832,1337.915695970723,994.4933200740415,502.2000158724764,157.12663835672163,155.75080367416044,0.0,0.0,0.0,0.0,0.0,0.0,0.0,0.0,0.0,0.0,0.0,0.0,0.0,85.30526010114588,418.27059045389166,563.5643485841166,933.6793212354258,1296.638549624476,1278.75199679471,1176.6608516098472,1018.7087124435888,985.136942276155,571.8200586359543,132.63607905066212,0.0,0.0,0.0,0.0,0.0,0.0,0.0,0.0,0.0,0.0,0.0,0.0,0.0,45.40465039393062,251.78757429928345,663.7293252133937,684.9178812813064,857.1794031026715,1043.199973706119,1211.33328952333,1069.341534631252,947.1625011245254,686.844049836892,213.26279927462932,0.0,0.0,0.0,0.0,0.0,0.0,0.0,0.0,0.0,0.0,0.0,0.0,0.0,122.72936737975104,620.2515453315195,1112.2696825965725,1464.4974004616452,1663.1756501446555,1800.2144001795136,1747.3802424997527,1572.091884376753,1267.7453193342208,829.3861386019946,360.20826098039834,0.0,0.0,0.0,0.0,0.0,0.0,0.0,0.0,0.0,0.0,0.0,0.0,0.0,134.28708066973553,664.5548260229305,1198.6756104437677,1584.199931539762,1820.0271215648647,1910.8357203962555,1873.4116131176504,1536.318778717221,1410.5625750358354,895.4290111908134,429.8283037438761,0.0,0.0,0.0,0.0,0.0,0.0,0.0,0.0,0.0,0.0,0.0,0.0,0.0,130.7092085386058,607.593164295486,1036.870432209867,1586.951600904884,1798.0130646874156,1874.5122808636995,1820.8526223744016,1624.1005412469772,1263.3419463935545,841.2190188284914,361.5840956629595,0.0,0.0,0.0,0.0,0.0,0.0,0.0,0.0,0.0,0.0,0.0,0.0,0.0,138.9649185904435,62.19053547764756,1214.91116165446,532.1939139087805,651.6212780503847,898.7310144289603,1922.39343368624,1715.459473951392,1415.2404129565434,950.4645043626722,428.17730212480274,0.0,0.0,0.0,0.0,0.0,0.0,0.0,0.0,0.0,0.0,0.0,0.0,0.0,153.8246351185748,684.367547408282,1189.319232645881,1542.097284383978,1756.736620297639,1841.49084456929,1811.4969465329852,1646.664931997451,1372.3129669476937,952.941708747753,429.8283037438761,0.0,0.0,0.0,0.0,0.0,0.0,0.0,0.0,0.0,0.0,0.0,0.0,0.0,163.18031095999075,723.4426563059604,1250.6842673139915,1636.208588409986,1866.8076066413569,1955.4148699806492,1910.5605534597432,1742.7024045790447,1399.004861745851,979.3584366093982,448.54035738317873,22.83955768698608,0.0,0.0,0.0,0.0,0.0,0.0,0.0,0.0,0.0,0.0,0.0,0.0,165.10647951557638,705.8312704127069,1226.4681729879735,1586.6764339683716,1793.885560639732,1805.1674050367335,1768.018464694641,1606.213988417211,1314.800269390754,917.7189369612458,413.31758559667145,15.685217337668009,0.0,0.0,0.0,0.0,0.0,0.0,0.0,0.0,0.0,0.0,0.0,0.0,162.35481015045403,634.5602260301556,1201.702446745402,1568.789881138606,1776.5493416829906,1846.994885256005,1822.228457056963,1578.9710577895587,1299.6653859261105,899.5572171949675,403.4108739257604,14.034215718594606,0.0,0.0,0.0,0.0,0.0,0.0,0.0,0.0,0.0,0.0,0.0,0.0,170.3353532657795,697.0259284443154,1195.37290524915,1561.0852069162634,1774.6231731274054,1868.7337751969424,1836.813006648582,1676.6595319902258,1395.427691571192,942.7598301403298,429.8283037438761,24.765726242571716,0.0,0.0,0.0,0.0,0.0,0.0,0.0,0.0,0.0,0.0,0.0,0.0,154.92530286462377,599.062287307136,1195.0977383126374,1390.4746867139718,1755.360785615078,1822.5036239934752,1779.0258441116007,1617.2213678341711,1323.331146379104,677.7635409319884,413.5927525331838,20.913389131400447,0.0,0.0,0.0,0.0,0.0,0.0,0.0,0.0,0.0,0.0,0.0,0.0,173.36218956741408,678.0387078685006,918.8196047072948,1063.563028964495,1129.881068489826,1655.4709759223133,1789.2070207625534,1104.0139725447348,1305.9949274223625,886.0733353493974,408.914212656005,18.712053639302574,0.0,0.0,0.0,0.0,0.0,0.0,0.0,0.0,0.0,0.0,0.0,0.0,147.77026055883496,530.2677453531949,1022.5617515112308,1520.9087283160652,1743.8030723250936,1390.1995197774595,1520.0832275065286,1313.699601644705,1193.9970705665887,866.8109478370703,414.6934202792327,23.389891560010543,0.0,0.0,0.0,0.0,0.0,0.0,0.0,0.0,0.0,0.0,0.0,0.0,129.33337385604466,461.748370335766,463.1249069747979,263.3452875892679,709.1339756073244,961.7470507161446,1788.3822219094873,1627.9528783581484,1352.2243766693591,943.5853309498664,424.32426305716086,30.544933865799315,0.0,0.0,0.0,0.0,0.0,0.0,0.0,0.0,0.0,0.0,0.0,0.0,200.05408436557144,726.1950276275535,1212.1587903328666,1175.285016927286,1769.1191324406896,1834.0613372834596,1806.2680727827824,1653.5448073667276,1376.9908048684017,966.4248886368524,441.6604820139022,36.04827259604399,0.0,0.0,0.0,0.0,0.0,0.0,0.0,0.0,0.0,0.0,0.0,0.0,208.8601282904336,724.5433240520093,1187.9433979633195,1514.0295549032596,1756.1862864246143,1838.4640082676551,1789.4821876990654,1421.0189186233004,1359.6545859116602,926.7994458661494,440.5598142678533,35.77310565953175,0.0,0.0,0.0,0.0,0.0,0.0,0.0,0.0,0.0,0.0,0.0,0.0,206.10845892531128,711.06014416291,1039.62280353146,1126.028029422184,1443.8591782667572,1609.515991655358,1438.9054714530662,1399.2800286823633,1193.9970705665887,586.6797751640855,281.2318404190338,14.034215718594606,0.0,0.0,0.0,0.0,0.0,0.0,0.0,0.0,0.0,0.0,0.0,0.0,28.61876531021368,119.42736414160422,188.77223996856983,355.8048880397319,190.6984085241555,126.58170449092228,434.230974728072,601.5387897357461,45.67981733044286,340.3948376385761,161.52930934091734,0.2751669365122335,0.0,0.0,0.0,0.0,0.0,0.0,0.0,0.0,0.0,0.0,0.0,0.0,113.92402541135957,354.4290533571707,567.1422207152464,531.3691150557145,795.2647365180069,646.9434401296768,608.4186651050227,664.2796590864183,640.0642667168709,197.5775819369613,91.35893270441504,0.0,0.0,0.0,0.0,0.0,0.0,0.0,0.0,0.0,0.0,0.0,0.0,0.0,33.84693710394612,143.36758957463925,535.2214521668858,775.1768481961432,1308.4714298509728,1795.811729195318,1450.1880178065385,1409.4619072897865,1318.102272628901,575.3972288106133,276.2788355618136,16.51071814720471,0.0,0.0,0.0,0.0,0.0,0.0,0.0,0.0,0.0,0.0,0.0,0.0,244.63323394996536,265.54662308136585,815.6277917763829,1293.8868802593536,1838.4640082676551,1913.8632586543608,1893.7746683760265,1748.4809102458014,1462.0208980330356,536.5972868494471,270.77549683156894,22.289223813961613,0.0,0.0,0.0,0.0,0.0,0.0,0.0,0.0,0.0,0.0,0.0,0.0,291.6888859629694,883.0464990477628,1398.7296948093388,1766.0922961390552,1968.6235848897077,2037.6932937801607,2002.7456889301657,1815.6244505806687,1505.2235109783971,1058.3348571707625,495.3201405031999,53.934825425809855,0.0,0.0,0.0,0.0,0.0,0.0,0.0,0.0,0.0,0.0,0.0,0.0,288.1110138318396,851.4008974359147,1329.9351528553975,1656.571643668362,1837.6385074581185,1887.9961627092691,1873.9619469906747,1689.3179130262597,1393.5015230156062,982.6604398475448,477.433587673434,51.45832299719976,0.0,0.0,0.0,0.0,0.0,0.0,0.0,0.0,0.0,0.0,0.0,0.0,284.5338436571806,827.4599700464089,1287.558040719572,1671.4306582400227,1867.9082743874055,1032.4677612256714,1913.3129247813365,1736.0983981027512,1450.4631847430508,997.244989439164,488.7161340269063,61.36503466811086,0.0,0.0,0.0,0.0,0.0,0.0,0.0,0.0,0.0,0.0,0.0,0.0,280.4063396094971,812.8761224112606,1279.3030326242051,1609.7911585918705,864.8847792814847,1472.4772416205,1499.4450053116404,1127.9548999342403,720.415820004326,560.537512282482,276.5540024983258,26.14156092513289,0.0,0.0,0.0,0.0,0.0,0.0,0.0,0.0,0.0,0.0,0.0,0.0,31.09526773882378,68.79454195394118,75.39854843023477,255.3654464304132,567.6925545882708,778.4788514342899,1001.3724934868476,790.0358627678038,781.7808546724369,370.6646045678632,186.0205706034475,11.832880226496735,0.0,0.0,0.0,0.0,0.0,0.0,0.0,0.0,0.0,0.0,0.0,0.0,12.10804716300897,52.00865687022422,194.82591257183904,302.42039648694646,313.15260896739426,334.6163319718192,230.0486843583463,259.7681174146089,223.7198448185649,122.17903350672655,56.411327854419966,0.0,0.0,0.0,0.0,0.0,0.0,0.0,0.0,0.0,0.0,0.0,0.0,0.0,5.228171793732438,4.953004857220204,87.23142865673151,146.94475974929827,260.5936182241456,187.12123834949645,223.44467788205267,134.28708066973553,274.07750006971577,227.0218480567117,109.79581940720536,2.751669365122336,0.0,0.0,0.0,0.0,0.0,0.0,0.0,0.0,0.0,0.0,0.0,0.0,298.01772550275075,813.1505873913021,1252.0601019965527,1559.7086702772317,979.3584366093982,847.8237272612555,1136.2099080296075,892.6773418256912,1412.7639105279331,465.3262424668957,480.1852570385564,64.39187096974543,0.0,0.0,0.0,0.0,0.0,0.0,0.0,0.0,0.0,0.0,0.0,0.0,82.82875767253577,406.7128771639072,817.5539603319686,937.256491410085,818.1042942049929,892.4021748891788,1048.978479372876,900.3827180045042,1207.4809524121588,691.2474227775584,354.4290533571707,49.2569875051019,0.0,0.0,0.0,0.0,0.0,0.0,0.0,0.0,0.0,0.0,0.0,0.0,330.2136609876234,862.1324079598917,1179.138055994928,1382.2196786186048,1615.2944973221147,1690.418580772308,1622.9998735009283,1476.8806145611666,1205.554783856573,709.959476416861,361.5840956629595,52.83415767976092,0.0,0.0,0.0,0.0,0.0,0.0,0.0,0.0,0.0,0.0,0.0,0.0,319.4814485071757,740.5037083261897,935.055155917987,1052.0053156745105,1103.4636386717104,1227.2936737975103,1482.9342871644358,1259.7647762188951,727.5708623101148,401.759872306687,199.50375049254697,21.18855606791268,0.0,0.0,0.0,0.0,0.0,0.0,0.0,0.0,0.0,0.0,0.0,0.0,157.67697222974607,383.5981525404089,607.0428304224615,1629.879046913734,1801.3150679255627,1880.566655423439,1829.1083324262397,1678.8608674823236,1397.3538601267776,962.8477184621936,230.3238512948585,67.69387420789224,0.0,0.0,0.0,0.0,0.0,0.0,0.0,0.0,0.0,0.0,0.0,0.0,331.58949567018465,828.0103039194333,767.4714720173301,1070.7173693138134,1373.963968566767,1798.5633985604402,1741.0514029599713,1587.501934777909,1326.0828157442263,943.034997076842,274.6278339427402,39.35027583419079,0.0,0.0,0.0,0.0,0.0,0.0,0.0,0.0,0.0,0.0,0.0,0.0,56.411327854419966,286.46001221276623,500.2738473168907,545.1274618813262,802.9694107403495,1158.4998338000398,1269.6714878898065,1232.5225475477134,1397.3538601267776,657.4004856736124,213.81313314765384,28.06843143718921,0.0,0.0,0.0,0.0,0.0,0.0,0.0,0.0,0.0,0.0,0.0,0.0,371.2149384408877,929.826282167784,1400.6558633649242,1728.1178549874253,1917.4404288290195,1990.6376417671568,1938.35381796042,1766.0922961390552,1476.605447624654,1052.0053156745105,523.6637388769012,78.15021779535711,0.0,0.0,0.0,0.0,0.0,0.0,0.0,0.0,0.0,0.0,0.0,3.85233711117127,379.19548155621305,904.2350551156756,1358.553918165611,1630.430082743229,1819.751954628353,1890.1974982013671,1908.9095518406696,1677.4850327997624,1397.0786931902653,996.144321693115,507.4281876662088,80.90258911695014,0.0,0.0,0.0,0.0,0.0,0.0,0.0,0.0,0.0,0.0,0.0,14.034215718594606,397.082034385979,931.7524507233696,1377.8163056779383,1689.042746089747,1859.377397399056,1911.38605426928,1865.706938895308,1710.506469094172,1439.4558053260907,1031.6422604161346,529.9925784166827,86.13076091068257,0.0,0.0,0.0,0.0,0.0,0.0,0.0,0.0,0.0,0.0,0.0,10.181878607423338,342.59687508714467,661.2528227847837,998.0704902487006,1122.1756923110129,1395.9780254442164,1198.9507773802795,1573.7428859958263,854.1525668010371,892.9525087622031,975.2309325617148,477.9839215464584,77.87505085884487,0.0,0.0,0.0,0.0,0.0,0.0,0.0,0.0,0.0,0.0,0.0,0.0,317.0049460785655,489.2664678999307,455.1443638594724,503.0255166820131,798.8419066926659,1041.824139023558,620.801879204544,582.0012352869069,597.9616195610872,371.2149384408877,112.54748877232768,45.95498426695509,0.0,0.0,0.0,0.0,0.0,0.0,0.0,0.0,0.0,0.0,0.0,0.0,127.13203836394676,380.0209823657498,360.20826098039834,1718.211845272985,1954.3142022346003,2039.8946292722585,1936.1524824683224,1777.9251763655518,1490.6389613867782,1065.764364456593,526.9657421150481,86.4059278471948,0.0,0.0,0.0,0.0,0.0,0.0,0.0,0.0,0.0,0.0,0.0,31.09526773882378,438.3584787757554,1010.1785374117096,1510.4523847286005,1849.746554621128,2049.800638986699,2112.266341400859,2044.5724671929663,1853.0485578592743,1503.2973424228114,794.9895695814948,434.7813086010964,93.0099343234884,0.0,0.0,0.0,0.0,0.0,0.0,0.0,0.0,0.0,0.0,0.0,32.47110242138495,439.7343134583166,992.8423184549682,1458.7188947948885,1774.0728392543806,1959.2672070918209,2018.706073204346,1957.341038536235,1782.6030142862598,1486.2362904025824,1035.2194305907935,537.6979545954958,95.48643675209853,0.0,0.0,0.0,0.0,0.0,0.0,0.0,0.0,0.0,0.0,0.0,38.249608088141855,452.1175275578378,997.7953233121884,1432.576631913285,1728.943355796962,1895.976705824595,1946.6088260557876,1885.5196602806595,1721.5138485111318,1448.812183123977,1040.9986382140214,538.5234554050326,93.0099343234884,0.0,0.0,0.0,0.0,0.0,0.0,0.0,0.0,0.0,0.0,0.0,41.00127745326419,443.8618175060001,982.9356067840572,1429.273926718667,1730.8695243525476,1665.652152573266,1977.1537599215865,1922.9437675592644,1760.313790472298,1476.8806145611666,1031.3670934796226,534.9462852303735,94.11060206953734,0.0,0.0,0.0,0.0,0.0,0.0,0.0,0.0,0.0,0.0,0.0,43.47777988187429,429.8283037438761,947.71283499755,971.1027265575603,871.4887857577783,980.459104355447,440.83498120436553,1375.3398032493285,1716.0098078244166,1415.5155798930557,1004.4000317449528,504.4013513645743,95.76160368861076,0.0,0.0,0.0,0.0,0.0,0.0,0.0,0.0,0.0,0.0,0.0,42.10194519931312,417.1699227078428,601.5387897357461,1074.8455753179674,1662.0749823986068,1429.274628675138,1911.6612212057923,1852.2230570497372,1702.250759042334,1436.7041359609684,1039.3476365949475,530.2677453531949,97.13814032764262,0.0,0.0,0.0,0.0,0.0,0.0,0.0,0.0,0.0,0.0,0.0,48.98182056858965,424.599429993673,913.3155640205792,1087.7784213340424,1323.0559794425917,580.900567540858,1250.4091003774793,1581.7234291111515,1324.9821479981774,771.0486421919891,500.2738473168907,233.9010214695176,89.43276414882938,0.0,0.0,0.0,0.0,0.0,0.0,0.0,0.0,0.0,0.0,0.0,41.00127745326419,72.09654519208797,289.7627174073838,376.9941460641152,466.1517432764324,886.8988361589343,1314.5258044107125,780.1298530533634,734.1748687864082,443.3114836329757,370.6646045678632,223.44467788205267,97.13814032764262,0.0,0.0,0.0,0.0,0.0,0.0,0.0,0.0,0.0,0.0,0.0,26.41742981811581,151.62329962647695,973.5799309426412,1035.4945975273058,1232.247380611201,1307.645929041436,1233.3480483572505,1387.9981842853615,1239.6768878970315,1160.4253003991548,803.519744613374,517.8852332101444,105.3931484230096,0.0,0.0,0.0,0.0,0.0,0.0,0.0,0.0,0.0,0.0,0.0,2.751669365122336,25.59122705210841,104.01731374044844,160.42934355133912,166.20784921809602,265.2714561448536,327.4619916225012,763.6191349061586,672.8105360747682,509.9046900948189,329.9384940511112,94.3857690060496,0.0,0.0,0.0,0.0,0.0,0.0,0.0,0.0,0.0,0.0,0.0,0.0,66.5932064618433,486.7899654713207,1018.4335455070766,1418.5424161946903,1698.1232549946506,1865.1566050222837,1917.7155957655325,1862.129768720649,1712.982971522782,1438.3551375800416,1045.6764761347292,554.2086727427006,107.31931697859524,0.0,0.0,0.0,0.0,0.0,0.0,0.0,0.0,0.0,0.0,0.0,72.37171212860021,487.0651324078329,987.6141466612356,1389.6491859044352,1670.055525513932,1522.0093960621143,1903.131046173913,1830.759334045313,1679.6863682918602,1403.6826996665588,315.35394445949214,545.9529626908629,111.72198796279098,0.0,0.0,0.0,0.0,0.0,0.0,0.0,0.0,0.0,0.0,0.0,74.29788068418584,503.3006836185253,1049.5288132459004,1495.317501263957,1803.7915703541723,1981.8315978422945,2032.4644200299576,1741.0514029599713,1378.3666395509629,1520.6335613795532,1087.7784213340424,470.8295811971404,111.99715489930324,0.0,0.0,0.0,0.0,0.0,0.0,0.0,0.0,0.0,0.0,0.0,78.15021779535711,507.4281876662088,1048.1529785633393,1490.0886275137536,1797.4627308143913,1978.529594604148,2031.638919220421,1979.079928477172,1807.6439074653435,1515.6805565223328,1095.2086305763432,348.92571462692604,114.1991923478718,0.0,0.0,0.0,0.0,0.0,0.0,0.0,0.0,0.0,0.0,0.0,81.45292298997461,509.3543562217944,1011.2792051577584,1462.8463988425722,1763.3406267739329,1936.977983277859,1987.0604715924976,1931.4746445476144,1757.8372880436882,993.3926523279926,1038.246266892428,548.9797989924975,122.17903350672655,0.0,0.0,0.0,0.0,0.0,0.0,0.0,0.0,0.0,0.0,0.0,85.85559397417035,512.6563594599413,1014.5812083959056,1418.267249258178,1695.6467525660405,1853.5988917322989,1898.1780413166928,1654.3703081762642,1700.874924359773,1423.7712899448934,1041.5489720870455,566.5911848857511,124.9307028718489,0.0,0.0,0.0,0.0,0.0,0.0,0.0,0.0,0.0,0.0,0.0,87.78176252975598,523.9389058134135,1025.8637547493777,1464.222233525133,1753.9849509325168,1917.165261892508,1975.227591366001,1922.118266749728,1340.117031462821,1486.5114573390947,1075.3959091909917,565.7656840762145,122.4542004432388,0.0,0.0,0.0,0.0,0.0,0.0,0.0,0.0,0.0,0.0,0.0,46.23015120346732,193.45007788927785,624.6542163157151,1068.240866885203,1344.7948693835287,1435.328301278407,1510.4516827721295,1801.5902348620743,1640.6112593941816,1374.5143024397914,998.6208241217251,533.5704505478125,119.42736414160422,0.0,0.0,0.0,0.0,0.0,0.0,0.0,0.0,0.0,0.0,0.0,89.43276414882938,347.8250468808771,753.9875901717598,1031.09192654311,978.2577688633492,1692.8950832009182,867.0861147735827,1642.2622610132553,1061.3616934723973,975.2309325617148,569.3435562073441,296.6418908201896,95.48643675209853,0.0,0.0,0.0,0.0,0.0,0.0,0.0,0.0,0.0,0.0,0.0,26.692596754628045,171.7111879483407,818.1042942049929,604.8414949303636,1178.8628890584157,1370.6619653286205,1397.6290270632896,671.9843333087607,659.326654229198,660.4273219752469,477.15842073692176,271.60099764110566,80.90258911695014,0.0,0.0,0.0,0.0,0.0,0.0,0.0,0.0,0.0,0.0,0.0,95.21126981558628,251.5124073627712,725.6446937545292,1007.151701110075,666.7561615150283,1517.331558141406,1608.1401569727968,1244.0795588812273,1092.7321281477332,717.3889837026913,502.4751828089887,257.56678192251104,85.30526010114588,0.0,0.0,0.0,0.0,0.0,0.0,0.0,0.0,0.0,0.0,0.0,2.751669365122336,256.1909472399499,60.8139988386157,93.56026819651288,359.3827601708616,725.3695268180168,935.880656727524,739.9533744531653,665.6554937689793,757.2895934099066,614.1971707717796,348.37538075390154,100.16497662927718,0.0,0.0,0.0,0.0,0.0,0.0,0.0,0.0,0.0,0.0,0.0,0.0,307.92443717366183,325.5358230669155,312.0519412213454,1227.2936737975103,1035.4945975273058,607.8683312319982,774.9009793031602,506.05235298364767,442.7611497599512,414.4182533427204,105.3931484230096,57.78716253698113,0.0,0.0,0.0,0.0,0.0,0.0,0.0,0.0,0.0,0.0,0.0,27.242930627652512,83.65425848207248,206.933959734848,777.9285175612656,1761.4144582183474,1906.983383285084,1961.4685425839184,1684.6393731490807,1765.2667953295186,1490.6389613867782,1062.187194281934,580.6254006043457,131.81057824112543,0.0,0.0,0.0,0.0,0.0,0.0,0.0,0.0,0.0,0.0,0.0,106.7689831055708,555.5845074252618,1049.5288132459004,1430.6504633576992,1695.6467525660405,1846.1693844464687,1884.969326407635,1822.7787909299875,1666.2024864462903,1401.481364174461,1026.9644224954266,560.2623453459698,124.9307028718489,0.0,0.0,0.0,0.0,0.0,0.0,0.0,0.0,0.0,0.0,0.0,106.21864923254633,549.2549659290097,1035.2194305907935,1406.7102379246642,1657.672311414411,1801.5902348620743,1840.3901768232408,1791.9593920841464,1648.8662674895488,1396.2531923807287,1029.4409249240366,566.8663518222634,129.33337385604466,0.0,0.0,0.0,0.0,0.0,0.0,0.0,0.0,0.0,0.0,0.0,113.6488584748473,554.2086727427006,1045.6764761347292,1426.2477923735034,1690.1434138357956,1837.6385074581185,1876.9887832923096,1902.3055453643765,1674.1830295616155,1422.945087178886,1052.0053156745105,579.799899794809,134.28708066973553,0.0,0.0,0.0,0.0,0.0,0.0,0.0,0.0,0.0,0.0,0.0,115.85019396694518,551.181836441066,1031.9174273526469,1401.481364174461,1665.927319509778,1808.194943294839,1845.343883636932,1667.8534880653638,1642.537427949767,1387.4471484558665,1015.9570430784664,561.638180028531,137.3139169713701,0.0,0.0,0.0,0.0,0.0,0.0,0.0,0.0,0.0,0.0,0.0,116.95086171299413,548.1542981829608,995.5939878200908,1436.9793028974807,1702.526627935317,1652.7193065571907,1909.7350526502064,1847.5452191290296,1686.566243661137,1428.4491278656014,1019.8093801896376,564.3898493936532,138.1394177809068,0.0,0.0,0.0,0.0,0.0,0.0,0.0,0.0,0.0,0.0,0.0,106.7689831055708,462.2987042087904,872.3142865673152,1246.556061309837,895.4290111908134,962.0222176526568,1656.571643668362,1631.5307504892785,1497.243669819543,1105.664974163808,1004.9503656179774,494.21947275715087,141.16625408254137,0.0,0.0,0.0,0.0,0.0,0.0,0.0,0.0,0.0,0.0,0.0,129.60854079255688,490.36713564597966,810.674084962692,1110.343514040987,1144.4656180814452,1389.9243528409472,1549.8026605627913,1470.8262400014269,1172.808514498676,679.689709487574,492.5684711380775,352.7780517380973,101.81597824835058,0.0,0.0,0.0,0.0,0.0,0.0,0.0,0.0,0.0,0.0,0.0,30.544933865799315,352.7780517380973,654.0977804789949,876.1666236784864,1244.905059690764,1317.0016048828518,1475.779244858647,1743.5279053885813,1578.6958908530466,1332.4116552840078,974.1302648156658,533.8456174843246,147.49509362232274,0.0,0.0,0.0,0.0,0.0,0.0,0.0,0.0,0.0,0.0,0.0,97.96364113717932,307.92443717366183,640.0642667168709,919.094771643807,853.0518990549881,883.5968329207874,1320.029143140957,1260.590277028432,1426.5229593100155,1151.0696245577387,988.4396474707726,549.8052998020341,152.72396737252586,0.0,0.0,0.0,0.0,0.0,0.0,0.0,0.0,0.0,0.0,0.0,132.63607905066212,547.6039643099363,1025.3134208763531,1410.012241162811,1316.1761040733152,1769.9446332502266,1804.341904227197,1747.10507556324,1593.83077431769,699.5024308729255,1001.6476604233596,553.1080049966516,151.07296575345248,0.0,0.0,0.0,0.0,0.0,0.0,0.0,0.0,0.0,0.0,0.0,128.78303998302016,542.650959452716,1011.0040382212464,831.0378421775387,1421.2947875162831,1823.329124803012,1868.45860826043,1746.0044078171911,1364.8827577053926,1072.6435378693989,808.4727494705941,437.808144902731,114.74952622089626,0.0,0.0,0.0,0.0,0.0,0.0,0.0,0.0,0.0,0.0,0.0,78.9764205613645,20.913389131400447,295.54122307414065,582.0012352869069,1316.176806029786,896.5296789368623,780.9553538629,1203.9037822375,1217.9379979560945,634.2850590936433,429.553136807364,306.27343555458845,159.60314078533173,0.0,0.0,0.0,0.0,0.0,0.0,0.0,0.0,0.0,0.0,0.0,143.36758957463925,613.6468368987552,1139.236744331242,1540.996616637929,1815.8996175171808,1969.9994195722684,2003.0208558666784,1929.272607099046,1763.6157937104451,1488.4376258946804,1101.2623031796124,602.3642905452828,161.52930934091734,0.0,0.0,0.0,0.0,0.0,0.0,0.0,0.0,0.0,0.0,0.0,143.64275651115148,590.2569453387446,1060.8113595993727,1433.4028346792925,1683.8145742960146,1824.154625612549,1861.304267911112,1816.7251183267183,1654.9206420492883,1408.9115734167622,1041.2738051505332,588.8811106561834,160.9789754678929,0.0,0.0,0.0,0.0,0.0,0.0,0.0,0.0,0.0,0.0,0.0,81.45292298997461,581.1757344773702,1048.1529785633393,1418.267249258178,1677.7601997362744,1821.402956247426,1858.551896589519,1308.1962629144605,1666.2031884027608,1402.0316980474856,1036.870432209867,582.8267360964436,158.77763997579504,0.0,0.0,0.0,0.0,0.0,0.0,0.0,0.0,0.0,0.0,0.0,143.36758957463925,562.4636808380676,1015.9570430784664,1374.5143024397914,1623.2750404374406,1761.6896251548594,1798.8385654969522,1556.1315001025728,1623.825374310465,334.3411650353069,526.1402413055114,578.1488981757356,169.78501939275503,0.0,0.0,0.0,0.0,0.0,0.0,0.0,0.0,0.0,0.0,0.0,149.97229800740354,459.8222017801804,1004.675198681465,1358.8290851021234,1601.8113174330151,1740.501069086947,1542.9227851935148,1174.7346830542615,454.594029986448,1223.9916705593637,794.1633668154873,570.1690570168807,173.08702263090186,0.0,0.0,0.0,0.0,0.0,0.0,0.0,0.0,0.0,0.0,0.0,148.59646332484235,552.5576711236272,1001.3724934868476,1358.553918165611,1608.1401569727968,1749.5815779918505,975.2309325617148,1766.9177969485916,1596.0321098097877,1353.6002113519205,1001.6476604233596,487.6154662808573,168.95951858321834,0.0,0.0,0.0,0.0,0.0,0.0,0.0,0.0,0.0,0.0,0.0,146.66959281278602,563.5643485841166,1038.5214338289406,1413.0390774644457,1671.9816940695175,1820.0271215648647,1861.304267911112,1815.6244505806687,1662.9004832081434,1404.783367412608,1010.7288712847342,580.6254006043457,170.3353532657795,0.0,0.0,0.0,0.0,0.0,0.0,0.0,0.0,0.0,0.0,0.0,148.32059443185943,557.2355090443352,1002.1979942963842,1398.7296948093388,1669.505191640908,1815.8996175171808,1855.5250602878848,1802.4157356716116,1648.5911005530363,1350.0230411772611,997.7953233121884,575.3972288106133,171.7111879483407,0.0,0.0,0.0,0.0,0.0,0.0,0.0,0.0,0.0,0.0,0.0,92.45960045046397,538.7986223415448,913.3155640205792,1224.8171713689003,1596.3079787027705,1609.2408247188455,1472.7524085570126,1624.6508751200013,1376.4404709953772,1228.6695084800715,893.2276756987155,566.3160179492389,173.91252344043855,0.0,0.0,0.0,0.0,0.0,0.0,0.0,0.0,0.0,0.0,0.0,151.89846656298917,471.10474813365255,986.237610022204,1330.485486728422,1567.9643803290692,1699.7742566137244,1745.454073944167,1700.3245904867483,938.3571591561338,1092.7321281477332,975.5060994982268,473.856417498775,181.3420307262689,0.0,0.0,0.0,0.0,0.0,0.0,0.0,0.0,0.0,0.0,0.0,156.0259706106727,541.5502917066672,969.1765580019749,1314.525102454242,1558.333537551141,1697.297754185114,1744.353406198118,1693.7205840104548,1545.9503234516196,1140.8877459503155,903.6847212426512,432.8551400455107,164.00581176952744,0.0,0.0,0.0,0.0,0.0,0.0,0.0,0.0,0.0,0.0,0.0,134.0119137332233,552.2825041871149,866.5357809005583,1130.1562354263383,1418.8175831312024,1222.8910028133146,1274.6244927470266,1357.4532504195624,1208.3064532216954,1196.7494418881818,881.9451293452433,344.24787670621805,168.68435164670612,0.0,0.0,0.0,0.0,0.0,0.0,0.0,0.0,0.0,0.0,0.0,128.2327061099957,527.7912429245848,854.9780676105736,1165.3790072128456,1421.569252496325,1539.070448082343,1658.2226452874354,1548.42682588023,1417.1665815121291,1369.2854286895886,1023.6624192572798,596.3106179420138,169.2346855197306,0.0,0.0,0.0,0.0,0.0,0.0,0.0,0.0,0.0,0.0,0.0,140.89108714602915,432.02963923597406,856.0787353566226,1159.875668482601,1350.5733750502857,1473.8530763030612,1585.0254323492984,1484.8604557200215,1464.222233525133,1202.8031144914507,793.3378660059506,529.7174114801704,172.26152182136514,0.0,0.0,0.0,0.0,0.0,0.0,0.0,0.0,0.0,0.0,0.0,141.16625408254137,532.1939139087805,767.4714720173301,1134.558906410534,1282.0547019893277,1103.7388056082225,586.4046082275734,1066.039531393105,1337.6405290342109,1075.6710761275042,841.2190188284914,526.4154082420237,174.73802424997527,0.0,0.0,0.0,0.0,0.0,0.0,0.0,0.0,0.0,0.0,0.0,145.84409200324933,518.7107340196811,916.617567258726,1150.794457621227,1414.1397452104943,1474.95374404911,1598.784481131381,1440.2813061356271,1276.2754943661,1020.9100479356867,805.1707462324473,513.2066933329658,69.62004276347787,0.0,0.0,0.0,0.0,0.0,0.0,0.0,0.0,0.0,0.0,0.0,133.1864129236866,555.859674361774,991.4664837724072,1336.539861288162,1574.5683868053627,1709.6809682846351,1748.756077182314,1703.3521287448536,1562.7355065788663,1333.7874899665687,1001.3724934868476,587.23010903711,188.4970730320576,0.0,0.0,0.0,0.0,0.0,0.0,0.0,0.0,0.0,0.0,0.0,136.76358309834563,552.5576711236272,977.1571011173004,1321.129810887006,1559.9838372137438,1692.344749327894,824.9834676177987,940.558494648232,1167.5803427049436,1318.9284753949082,978.2577688633492,576.22272962015,175.0131911864875,0.0,0.0,0.0,0.0,0.0,0.0,0.0,0.0,0.0,0.0,0.0,160.15347465835617,302.14522955043424,955.6933781128754,1293.061379449817,1531.3657738600011,1293.6117133228413,1207.2057854756465,755.0882579178088,182.4426984723178,613.9220038352673,675.5622054398905,476.8832538004096,178.5903613611465,0.0,0.0,0.0,0.0,0.0,0.0,0.0,0.0,0.0,0.0,0.0,147.21992668581052,566.8663518222634,1022.0114176382064,1382.218976662134,1633.4569190448638,1777.099675556015,1819.751954628353,1524.7610654272366,1645.5642642514017,1393.226356079094,1048.4281454998516,618.0495078829509,190.6984085241555,0.0,0.0,0.0,0.0,0.0,0.0,0.0,0.0,0.0,0.0,0.0,154.09980205508705,547.3287973734241,970.0027607679822,1307.370762104924,1544.574488769059,1679.1360344188358,1725.9165194953275,1687.942078343698,1552.8294968644257,1325.5324818712018,727.8460292466269,496.4208082492488,197.5775819369613,0.0,0.0,0.0,0.0,0.0,0.0,0.0,0.0,0.0,0.0,0.0,150.522631880428,554.4838396792128,628.2313864903742,1328.284151236324,863.5082426424528,1716.284974760929,1734.1715275906947,1323.331146379104,1563.2858404518909,1330.2103197919098,1009.0778696656606,600.162955053185,194.82591257183904,0.0,0.0,0.0,0.0,0.0,0.0,0.0,0.0,0.0,0.0,0.0,150.522631880428,548.7046320559853,976.0564333712514,1321.129810887006,1544.2993218325464,1266.3694846516594,1745.729240880679,1682.4380376569827,1549.2523266897667,1323.6063133156165,994.7684870105538,594.9347832594526,200.3292513020837,0.0,0.0,0.0,0.0,0.0,0.0,0.0,0.0,0.0,0.0,0.0,155.47563673764822,392.6786614453125,966.1497217003404,1298.289551243549,1529.7147722409277,1665.9280214662488,1706.6541319830008,1655.195808985801,1522.5597299351389,958.1698805414854,679.1393756145495,565.7663860326851,183.81923511134968,0.0,0.0,0.0,0.0,0.0,0.0,0.0,0.0,0.0,0.0,0.0,155.47563673764822,540.4496239606182,955.418211176363,1296.3633826879638,1535.4932779076842,912.4900632110426,1218.4883318291188,267.47279163695146,1472.4772416205,1317.2774737758348,1026.1389216858895,610.8951675336327,189.3225738415943,0.0,0.0,0.0,0.0,0.0,0.0,0.0,0.0,0.0,0.0,0.0,152.17363349950142,542.650959452716,973.304764006129,1315.0754363272663,1558.057668658158,1173.6340153082126,1761.6896251548594,1397.3538601267776,663.7293252133937,70.72071050952681,108.14481778813196,99.88980969276494,58.61266334651782,0.0,0.0,0.0,0.0,0.0,0.0,0.0,0.0,0.0,0.0,0.0,152.17363349950142,543.2012933257406,961.19671684312,1305.7197604858502,1548.42682588023,1453.214854108173,755.363424854321,1130.1562354263383,1572.3670513132652,1326.3579826807386,1003.5738289789456,517.8852332101444,210.7862968460192,0.0,0.0,0.0,0.0,0.0,0.0,0.0,0.0,0.0,0.0,0.0,86.68109478370704,531.3684130992439,944.410831759403,1043.199973706119,1533.567109352099,1077.872411619602,678.5890417415251,1024.7630870033288,1308.7465967874848,866.5357809005583,237.20372666413505,15.134883464643542,195.1010795083513,0.0,0.0,0.0,0.0,0.0,0.0,0.0,0.0,0.0,0.0,0.0,152.17363349950142,536.8724537859592,963.67321927173,1313.9747685812174,1534.3919082051646,1205.0044499835487,859.6559055312816,1269.9466548263183,1326.908316553763,1327.4586504267877,973.5799309426412,258.11711579553554,117.22602864950636,0.0,0.0,0.0,0.0,0.0,0.0,0.0,0.0,0.0,0.0,0.0,151.89846656298917,538.5234554050326,959.820882160559,1304.3439258032893,1546.775122304686,1129.0555676802894,392.6786614453125,1505.2235109783971,1363.7820899593437,996.4194886296274,118.05152945904308,206.933959734848,149.69713107089132,0.0,0.0,0.0,0.0,0.0,0.0,0.0,0.0,0.0,0.0,0.0,93.8354351330251,339.56933682903946,283.4331759111317,308.4747710466863,513.2066933329658,730.3218297187664,1412.7639105279331,1239.4017209605192,375.3424424885711,71.5462113190635,319.7566154436879,231.9748529139319,139.7904193999802,0.0,0.0,0.0,0.0,0.0,0.0,0.0,0.0,0.0,0.0,0.0,148.0454274953472,537.6979545954958,961.7470507161446,1312.8741008351683,1529.4389033479445,1372.0378000111812,1724.265517876254,1671.7065271330057,1535.4932779076842,1313.9747685812174,1019.5342132531256,615.0226715813163,201.7057879411156,1.926168555585635,0.0,0.0,0.0,0.0,0.0,0.0,0.0,0.0,0.0,0.0,130.15887466558135,537.6979545954958,978.2577688633492,1336.539861288162,1595.7569428732756,1271.597656445392,1591.9046057621044,1220.1393334481922,1435.053134341895,1283.9808705449132,1033.8435959082326,608.9689989780471,223.16951094554045,1.926168555585635,0.0,0.0,0.0,0.0,0.0,0.0,0.0,0.0,0.0,0.0,121.07836576067764,534.1207844208369,952.6665418112408,1201.1521128723773,1530.540273050464,1477.4309484341911,1415.5155798930557,1583.099263793713,1088.8790890800913,1137.0354088391443,1019.2590463166134,619.9756764385365,201.4306210046033,2.2013354920978685,0.0,0.0,0.0,0.0,0.0,0.0,0.0,0.0,0.0,0.0,144.46825732068817,553.6583388696762,992.2919845819438,1335.16332464913,1426.5229593100155,1502.4718416132748,1842.5922142718096,1780.9520126671864,1643.362928759304,1412.7639105279331,1044.300641452168,635.3857268396923,197.8527488734736,4.127504047683503,0.0,0.0,0.0,0.0,0.0,0.0,0.0,0.0,0.0,0.0,126.58170449092228,447.1645227006175,806.2714139784963,1170.332012070066,1377.2659718049138,1499.1698383751284,1583.6495976667372,1687.942078343698,1547.0509911976687,1328.5593181728366,1012.1047059672952,615.848172390853,204.1822903697256,1.6510016190734011,0.0,0.0,0.0,0.0,0.0,0.0,0.0,0.0,0.0,0.0,134.28708066973553,496.1456413127365,800.4929083117394,772.4244768745501,655.7494840545389,1070.4422023773009,1462.2960649695474,1070.4422023773009,1356.6277496100256,1097.134799131929,855.5284014835981,214.08830008416604,175.2883581229997,0.0,0.0,0.0,0.0,0.0,0.0,0.0,0.0,0.0,0.0,0.0,130.15887466558135,410.84108316806135,970.2779277044946,475.5074191178484,176.1138589325364,129.05820691953238,527.7912429245848,992.2919845819438,1682.9883715300073,1216.562163273533,785.0828579105837,559.436844536433,226.19634724717503,4.402670984195737,0.0,0.0,0.0,0.0,0.0,0.0,0.0,0.0,0.0,0.0,0.0,123.83003512579998,495.8704743762244,760.5922986045241,1372.3129669476937,1594.3811081907145,1826.6318299976288,1520.6335613795532,1341.492866145382,736.3762042785063,914.9665656396528,474.4067513717994,203.35678956018896,2.2013354920978685,0.0,0.0,0.0,0.0,0.0,0.0,0.0,0.0,0.0,0.0,122.4542004432388,529.9925784166827,804.8955792959351,1297.739217370525,1531.6409407965132,1672.5320279425423,1526.9624009193344,1449.6376839335142,1561.6348388328172,1323.0559794425917,1009.6282035386852,619.7005095020243,209.9607960364825,4.127504047683503,0.0,0.0,0.0,0.0,0.0,0.0,0.0,0.0,0.0,0.0,142.2669218285903,524.7644066229502,949.6397055096062,1294.162047195866,1542.3724513204902,1695.9219195025526,1741.6017368329958,1025.5885878128654,1594.656275127227,1349.4727073042368,978.8081027363738,631.2582227920087,210.2359629729948,6.604006476293605,0.0,0.0,0.0,0.0,0.0,0.0,0.0,0.0,0.0,0.0,132.63607905066212,522.2879041943402,956.2437119859,1125.7535644421428,860.7565732773306,343.6975428331936,1809.8459449139125,1708.8554674750983,1645.5642642514017,1153.2709600498367,342.59687508714467,492.5684711380775,212.16213152858043,6.604006476293605,0.0,0.0,0.0,0.0,0.0,0.0,0.0,0.0,0.0,0.0,137.86425084439458,515.1328618885514,943.5853309498664,1298.289551243549,1564.1120432178975,1711.3319699037086,1760.038623535786,276.8291694348381,202.25612181414,623.278381633154,803.2445776768618,442.2108158869267,149.14679719786685,0.0,0.0,0.0,0.0,0.0,0.0,0.0,0.0,0.0,0.0,0.0,118.3266963955553,515.9590646545588,947.4376680610376,1304.619092739801,1559.1583364042071,366.2619335836675,328.0123254955256,313.42777590390654,582.8267360964436,757.2895934099066,808.1975825340819,615.2978385178286,211.88696459206815,0.0,0.0,0.0,0.0,0.0,0.0,0.0,0.0,0.0,0.0,0.0,84.20459235509693,472.75574975272593,905.6108897982368,1297.4640504340127,1095.7589644493678,475.5074191178484,1276.550661302612,1320.029143140957,1044.300641452168,1071.818037059862,518.4355670831688,624.3790493792029,119.152197205092,0.0,0.0,0.0,0.0,0.0,0.0,0.0,0.0,0.0,0.0,0.0,147.77026055883496,296.6418908201896,761.4177994140609,1011.829539030783,57.51199560046889,132.63607905066212,189.3225738415943,407.2632110369317,864.6096123449726,1298.29025320002,833.5143446061487,28.61876531021368,214.36346702067829,0.0,0.0,0.0,0.0,0.0,0.0,0.0,0.0,0.0,0.0,0.0,128.78303998302016,509.9046900948189,929.826282167784,1279.027163731222,1514.579888776284,1722.3393493206684,1772.1459687423244,1656.8468106048742,1528.6141044948786,1131.8072370454115,995.3188208835784,609.2441659145594,236.10305891808613,0.0,0.0,0.0,0.0,0.0,0.0,0.0,0.0,0.0,0.0,0.0,135.6629153522967,490.642302582492,891.3015071431299,1262.2412786475054,1529.164438367903,1324.9821479981774,1446.335680695367,1706.1037981099762,1559.9838372137438,1321.6801447600303,971.6537623870556,596.8609518150382,204.45745730623784,0.0,0.0,0.0,0.0,0.0,0.0,0.0,0.0,0.0,0.0,0.0,133.7367467967111,494.7698066301754,899.8323841314799,1240.5023887065684,1328.8344851093486,1525.311399300261,1470.275906128402,1451.5638524890994,1303.7935919302647,1135.384407220071,875.616289805462,593.8341155134036,223.16951094554045,0.0,0.0,0.0,0.0,0.0,0.0,0.0,0.0,0.0,0.0,0.0,128.2327061099957,485.1389638522473,880.5692946626821,1212.9849930988742,1471.3765738744514,1232.5225475477134,1028.3402571779875,1652.4441396206785,251.78757429928345,397.90753519551566,447.1638207441469,618.600543712446,207.75946054438467,0.0,0.0,0.0,0.0,0.0,0.0,0.0,0.0,0.0,0.0,0.0,129.05820691953238,487.6154662808573,888.5498377780075,1222.8910028133146,1467.7994036997925,1614.1938295760658,1094.1079628302944,1026.9644224954266,1535.4932779076842,1301.867423374679,994.7684870105538,619.1501756289998,235.8278919815739,1.6510016190734011,0.0,0.0,0.0,0.0,0.0,0.0,0.0,0.0,0.0,0.0,121.62869963370208,495.3201405031999,914.141064830116,1263.8922802665786,1513.204054093723,1656.8468106048742,1542.3724513204902,1458.4430259019057,894.6035103812767,1160.700467335667,924.3229434375394,583.1019030329559,230.87418516788296,1.6510016190734011,0.0,0.0,0.0,0.0,0.0,0.0,0.0,0.0,0.0,0.0,116.95086171299413,469.4537465145792,740.7788752627018,1122.1756923110129,1386.6216476463296,1335.16332464913,1376.7156379318894,1002.7483281694088,1220.6896673212166,1028.3402571779875,898.1806805559356,582.2764022234192,80.35225524392567,0.0,0.0,0.0,0.0,0.0,0.0,0.0,0.0,0.0,0.0,0.0,29.719433056262613,157.67697222974607,442.2108158869267,512.1060255869168,1046.777143880778,1460.0947294774496,1362.4062552767823,1354.9767479909522,1231.972213674689,945.7866664419644,657.4004856736124,501.3745150629397,192.89974401625332,0.0,0.0,0.0,0.0,0.0,0.0,0.0,0.0,0.0,0.0,0.0,120.52803188765316,307.92443717366183,476.8832538004096,825.5338014908233,1253.711103615626,1263.6171133300666,1179.9635568044646,1471.9269077474755,1453.7651879811974,1088.328755207067,864.8847792814847,447.1645227006175,158.77763997579504,0.0,0.0,0.0,0.0,0.0,0.0,0.0,0.0,0.0,0.0,0.0,102.91664599439952,470.5544142606281,865.1599462179971,1203.9037822375,1099.336134624027,1277.651329048661,555.5845074252618,1579.7972605555665,1402.3068649839977,1018.4335455070766,260.8687851606578,115.02469315740848,0.0,0.0,0.0,0.0,0.0,0.0,0.0,0.0,0.0,0.0,0.0,0.0,119.70253107811644,471.10474813365255,865.9854470275336,1214.360827781435,1481.833619418387,911.9397293380184,1490.0893294702244,1504.6731771053728,959.2705482875344,1198.4004435072552,781.2305207994124,522.0127372578279,149.97229800740354,0.0,0.0,0.0,0.0,0.0,0.0,0.0,0.0,0.0,0.0,0.0,112.54748877232768,477.7087546099462,900.9330518775288,1106.766343866328,1283.9808705449132,1355.8022488004888,1106.4904749733448,1051.179814864974,1308.1962629144605,1327.7338173632995,898.455847492448,585.8542743545489,229.2231835488096,1.6510016190734011,0.0,0.0,0.0,0.0,0.0,0.0,0.0,0.0,0.0,0.0,115.85019396694518,472.48058281621377,885.7981684128852,1239.1265540240072,1493.6664996448835,1646.1145981244265,1497.5188367560547,1685.189707022105,1552.0039960548893,1336.815028224674,1017.3328777610276,620.5267122680317,210.511129909507,0.0,0.0,0.0,0.0,0.0,0.0,0.0,0.0,0.0,0.0,0.0,113.92402541135957,470.5544142606281,774.0754784936237,1068.240866885203,995.3188208835784,409.4645465290295,270.77549683156894,666.7561615150283,1310.9479322795828,960.6463829700956,790.5861966408281,616.3985062638775,169.5098524562428,0.0,0.0,0.0,0.0,0.0,0.0,0.0,0.0,0.0,0.0,0.0,97.96364113717932,331.58949567018465,901.7585526870656,512.9315263964535,1216.0118294005088,1208.85678709472,284.5338436571806,413.867919469696,789.7606958312916,766.6459712077932,611.7206683431696,340.9458734680713,66.5932064618433,0.0,0.0,0.0,0.0,0.0,0.0,0.0,0.0,0.0,0.0,0.0,50.35765525115082,350.5767162459994,127.13203836394676,341.2210404045835,409.4652484855002,776.8271478587459,811.4995857722289,900.9330518775288,952.1162079382162,962.5725515256812,121.07836576067764,304.6217319790444,189.59774077810653,0.0,0.0,0.0,0.0,0.0,0.0,0.0,0.0,0.0,0.0,0.0,36.873773405580685,278.7553379904237,420.7470928825018,702.2541002380478,1605.938821480699,1349.4727073042368,1759.4882896627616,1162.0770039746988,729.4970308657003,1275.1748266200511,1036.870432209867,628.5065534268865,219.04200689785696,0.0,0.0,0.0,0.0,0.0,0.0,0.0,0.0,0.0,0.0,0.0,92.1844335139517,481.5617936775881,938.6316241361754,1350.5733750502857,1624.6508751200013,714.3621474010567,1484.0349549104849,1746.829908626728,1605.938821480699,1388.2726492654033,1057.509356361226,479.6349231655318,200.88028713157885,0.0,0.0,0.0,0.0,0.0,0.0,0.0,0.0,0.0,0.0,0.0,100.16497662927718,473.856417498775,908.9128930363836,1269.396320953294,1522.0093960621143,1674.4574945416573,1202.8031144914507,1700.5997574232608,1053.9314842300962,1352.7747105423837,1020.3597140626624,618.3246748194632,222.8943440090282,0.0,0.0,0.0,0.0,0.0,0.0,0.0,0.0,0.0,0.0,0.0,105.66831535952184,461.1980364627415,751.5110877431497,1129.054865723819,1330.2103197919098,1486.7866242756072,1686.8407086411785,1646.1145981244265,757.5647603464189,990.0906490898458,1002.4731612328966,608.1434981685105,194.0004117623023,0.0,0.0,0.0,0.0,0.0,0.0,0.0,0.0,0.0,0.0,0.0,101.81597824835058,453.493362240399,867.6364486466072,1224.542004432388,1480.4577847358255,1632.6314182353271,1685.1904089785755,1671.4313601964932,1542.3724513204902,1327.1834834902752,1011.0040382212464,610.0696667240961,216.5648025127761,0.0,0.0,0.0,0.0,0.0,0.0,0.0,0.0,0.0,0.0,0.0,90.80859883139055,456.79536547854576,895.4290111908134,1260.865443964944,1125.4776955491598,607.0428304224615,1756.1862864246143,1695.9219195025526,1629.0535461041975,1403.9578666030714,1069.6167015677645,631.2582227920087,201.7057879411156,0.0,0.0,0.0,0.0,0.0,0.0,0.0,0.0,0.0,0.0,0.0,81.72808992648685,454.8691969229601,835.1653462252222,873.1397873768518,406.9880441004195,1038.5214338289406,1493.9416665813956,1353.0505794353664,1119.1488560093785,1113.3703503426216,757.2895934099066,512.1060255869168,199.7789174290592,0.0,0.0,0.0,0.0,0.0,0.0,0.0,0.0,0.0,0.0,0.0,76.22404923977147,372.0404392504244,770.2231413824521,1155.7474624784468,1276.2754943661,1489.2631267042168,1727.0171872413766,1446.8860145683916,1332.4116552840078,1231.972213674689,1009.6282035386852,527.2409090515603,189.8729077146188,0.0,0.0,0.0,0.0,0.0,0.0,0.0,0.0,0.0,0.0,0.0,78.9764205613645,453.2181953038867,902.8592204331144,1267.1949854611962,1524.4858984907244,1675.558864244177,1207.4809524121588,218.76683996134477,755.9137587273453,1293.8868802593536,1067.1401991391542,552.8328380601394,195.1010795083513,0.0,0.0,0.0,0.0,0.0,0.0,0.0,0.0,0.0,0.0,0.0,88.33209640278045,358.8324262978372,743.8064135208072,976.3316003077636,1342.3183669549187,849.474728880329,701.7037663650234,993.9429862010172,1102.362970925661,938.6323260926462,623.8287155061785,281.7821742920583,114.1991923478718,0.0,0.0,0.0,0.0,0.0,0.0,0.0,0.0,0.0,0.0,0.0,43.47777988187429,308.7499379831985,339.01900295601496,357.4558896588053,1028.3402571779875,877.2672914245353,896.8048458733746,1347.5465387486513,1268.5708201437574,1209.4071209677445,713.2614796550079,298.01772550275075,194.55074563532676,0.0,0.0,0.0,0.0,0.0,0.0,0.0,0.0,0.0,0.0,0.0,82.00325686299908,443.5866505694878,652.4467788599216,651.3461111138724,1542.097284383978,1261.9661117109931,1253.435936679114,1712.982971522782,1572.3670513132652,1356.352582673513,718.7648183852526,456.5201985420336,63.2912032236965,0.0,0.0,0.0,0.0,0.0,0.0,0.0,0.0,0.0,0.0,0.0,80.35225524392567,443.8618175060001,878.092792234072,1242.4285572621538,1500.8208399942018,1650.5179710650932,1703.9024626178784,1665.1018187002412,615.0226715813163,1347.8217056851634,1002.1979942963842,598.7871203706238,194.2755786988145,0.0,0.0,0.0,0.0,0.0,0.0,0.0,0.0,0.0,0.0,0.0,74.29788068418584,439.18397958529215,878.9182930436087,1239.9520548335438,1494.49200045442,1645.5642642514017,1304.8942596763138,1738.2997335948487,1535.4932779076842,1324.1566471886406,1007.4268680465874,597.9616195610872,167.30851696414496,0.0,0.0,0.0,0.0,0.0,0.0,0.0,0.0,0.0,0.0,0.0,69.34487582696563,346.1740452618037,876.7169575515109,1242.9788911351782,1505.773844851422,1654.9206420492883,1707.7547997290494,1668.9548577678831,1539.070448082343,980.1839374189348,998.8959910582374,584.4777377155169,191.24874239718,0.0,0.0,0.0,0.0,0.0,0.0,0.0,0.0,0.0,0.0,0.0,41.55161132628866,232.8003537234686,750.1352530605885,705.8319723691775,1083.1005834133343,1346.4458710026022,574.0213941280522,526.6905751785358,678.5890417415251,1164.2783394667968,1025.5885878128654,595.7602840689893,194.82591257183904,0.0,0.0,0.0,0.0,0.0,0.0,0.0,0.0,0.0,0.0,0.0,72.09654519208797,429.2779698708517,876.9921244880231,1253.711103615626,1505.773844851422,1318.6526065019252,1738.2997335948487,1198.4004435072552,919.6451055168312,1079.5234132386752,1006.8765341735628,587.23010903711,171.16085407531622,0.
...